<additional>
    <inductionLoop id="det_0_0" lane="0/1_to_1/1.-100_0" pos="80" freq="30" file="detectors.out.xml"/>
    <inductionLoop id="det_0_1" lane="0/1_to_1/1.-100_1" pos="80" freq="30" file="detectors.out.xml"/>
    <inductionLoop id="det_1_0" lane="1/0_to_1/1.-100_0" pos="80" freq="30" file="detectors.out.xml"/>
    <inductionLoop id="det_1_1" lane="1/0_to_1/1.-100_1" pos="80" freq="30" file="detectors.out.xml"/>
    <inductionLoop id="det_2_0" lane="1/2_to_1/1.-100_0" pos="80" freq="30" file="detectors.out.xml"/>
    <inductionLoop id="det_2_1" lane="1/2_to_1/1.-100_1" pos="80" freq="30" file="detectors.out.xml"/>
    <inductionLoop id="det_3_0" lane="2/1_to_1/1.-100_0" pos="80" freq="30" file="detectors.out.xml"/>
    <inductionLoop id="det_3_1" lane="2/1_to_1/1.-100_1" pos="80" freq="30" file="detectors.out.xml"/>
</additional>
