<additional>
    <!-- West Entrance -->
    <inductionLoop id="West_0" lane="West_Entrance_0" pos="80" freq="30" file="detectors.out.xml"/>
    <inductionLoop id="West_1" lane="West_Entrance_1" pos="80" freq="30" file="detectors.out.xml"/>

    <!-- South Entrance -->
    <inductionLoop id="South_0" lane="South_Entrance_0" pos="80" freq="30" file="detectors.out.xml"/>
    <inductionLoop id="South_1" lane="South_Entrance_1" pos="80" freq="30" file="detectors.out.xml"/>

    <!-- North Entrance -->
    <inductionLoop id="North_0" lane="North_Entrance_0" pos="80" freq="30" file="detectors.out.xml"/>
    <inductionLoop id="North_1" lane="North_Entrance_1" pos="80" freq="30" file="detectors.out.xml"/>

    <!-- East Entrance -->
    <inductionLoop id="East_0" lane="East_Entrance_0" pos="80" freq="30" file="detectors.out.xml"/>
    <inductionLoop id="East_1" lane="East_Entrance_1" pos="80" freq="30" file="detectors.out.xml"/>
</additional>
