<routes>
    <vType id="car" accel="2.6" decel="4.5" sigma="0.5" length="4.5" minGap="2.5" maxSpeed="13.89" guiShape="passenger"/>
    <vType id="bus" accel="1.2" decel="3.5" sigma="0.5" length="12" minGap="3.0" maxSpeed="11.11" guiShape="bus" color="1,0,0"/>
    <vType id="bike" accel="3.0" decel="5.0" sigma="0.7" length="2.0" minGap="1.0" maxSpeed="10.0" guiShape="motorcycle"/>
    
    <route id="route_NS" edges="North_Entrance_Far North_Entrance South_Exit South_Exit_Far"/>
    <route id="route_SN" edges="South_Entrance_Far South_Entrance North_Exit North_Exit_Far"/>
    <route id="route_EW" edges="East_Entrance_Far East_Entrance West_Exit West_Exit_Far"/>
    <route id="route_WE" edges="West_Entrance_Far West_Entrance East_Exit East_Exit_Far"/>
    
    <route id="route_NE" edges="North_Entrance_Far North_Entrance East_Exit East_Exit_Far"/>
    <route id="route_NW" edges="North_Entrance_Far North_Entrance West_Exit West_Exit_Far"/>
    <route id="route_SW" edges="South_Entrance_Far South_Entrance West_Exit West_Exit_Far"/>
    <route id="route_SE" edges="South_Entrance_Far South_Entrance East_Exit East_Exit_Far"/>
    <route id="route_EN" edges="East_Entrance_Far East_Entrance North_Exit North_Exit_Far"/>
    <route id="route_ES" edges="East_Entrance_Far East_Entrance South_Exit South_Exit_Far"/>
    <route id="route_WN" edges="West_Entrance_Far West_Entrance North_Exit North_Exit_Far"/>
    <route id="route_WS" edges="West_Entrance_Far West_Entrance South_Exit South_Exit_Far"/>
    <flow id="f_0_0_NS_s" begin="0" end="25200" vehsPerHour="105.0" route="route_NS" type="car" departLane="best" departSpeed="max"/>
    <flow id="f_0_0_NS_l" begin="0" end="25200" vehsPerHour="22.5" route="route_NE" type="car" departLane="best" departSpeed="max"/>
    <flow id="f_0_0_NS_r" begin="0" end="25200" vehsPerHour="22.5" route="route_NW" type="car" departLane="best" departSpeed="max"/>
    <flow id="f_0_0_SN_s" begin="0" end="25200" vehsPerHour="105.0" route="route_SN" type="car" departLane="best" departSpeed="max"/>
    <flow id="f_0_0_SN_l" begin="0" end="25200" vehsPerHour="22.5" route="route_SW" type="car" departLane="best" departSpeed="max"/>
    <flow id="f_0_0_SN_r" begin="0" end="25200" vehsPerHour="22.5" route="route_SE" type="car" departLane="best" departSpeed="max"/>
    <flow id="f_0_0_EW_s" begin="0" end="25200" vehsPerHour="105.0" route="route_EW" type="car" departLane="best" departSpeed="max"/>
    <flow id="f_0_0_EW_l" begin="0" end="25200" vehsPerHour="22.5" route="route_ES" type="car" departLane="best" departSpeed="max"/>
    <flow id="f_0_0_EW_r" begin="0" end="25200" vehsPerHour="22.5" route="route_EN" type="car" departLane="best" departSpeed="max"/>
    <flow id="f_0_0_WE_s" begin="0" end="25200" vehsPerHour="105.0" route="route_WE" type="car" departLane="best" departSpeed="max"/>
    <flow id="f_0_0_WE_l" begin="0" end="25200" vehsPerHour="22.5" route="route_WN" type="car" departLane="best" departSpeed="max"/>
    <flow id="f_0_0_WE_r" begin="0" end="25200" vehsPerHour="22.5" route="route_WS" type="car" departLane="best" departSpeed="max"/>
    <flow id="f_0_25200_NS_s" begin="25200" end="36000" vehsPerHour="595.0" route="route_NS" type="car" departLane="best" departSpeed="max"/>
    <flow id="f_0_25200_NS_l" begin="25200" end="36000" vehsPerHour="127.5" route="route_NE" type="car" departLane="best" departSpeed="max"/>
    <flow id="f_0_25200_NS_r" begin="25200" end="36000" vehsPerHour="127.5" route="route_NW" type="car" departLane="best" departSpeed="max"/>
    <flow id="f_0_25200_NS_bike" begin="25200" end="36000" vehsPerHour="85.0" route="route_NS" type="bike" departLane="best" departSpeed="max"/>
    <flow id="f_0_25200_NS_bus" begin="25200" end="36000" vehsPerHour="8" route="route_NS" type="bus" departLane="best" departSpeed="max"/>
    <flow id="f_0_25200_SN_s" begin="25200" end="36000" vehsPerHour="595.0" route="route_SN" type="car" departLane="best" departSpeed="max"/>
    <flow id="f_0_25200_SN_l" begin="25200" end="36000" vehsPerHour="127.5" route="route_SW" type="car" departLane="best" departSpeed="max"/>
    <flow id="f_0_25200_SN_r" begin="25200" end="36000" vehsPerHour="127.5" route="route_SE" type="car" departLane="best" departSpeed="max"/>
    <flow id="f_0_25200_SN_bike" begin="25200" end="36000" vehsPerHour="85.0" route="route_SN" type="bike" departLane="best" departSpeed="max"/>
    <flow id="f_0_25200_SN_bus" begin="25200" end="36000" vehsPerHour="8" route="route_SN" type="bus" departLane="best" departSpeed="max"/>
    <flow id="f_0_25200_EW_s" begin="25200" end="36000" vehsPerHour="595.0" route="route_EW" type="car" departLane="best" departSpeed="max"/>
    <flow id="f_0_25200_EW_l" begin="25200" end="36000" vehsPerHour="127.5" route="route_ES" type="car" departLane="best" departSpeed="max"/>
    <flow id="f_0_25200_EW_r" begin="25200" end="36000" vehsPerHour="127.5" route="route_EN" type="car" departLane="best" departSpeed="max"/>
    <flow id="f_0_25200_EW_bike" begin="25200" end="36000" vehsPerHour="85.0" route="route_EW" type="bike" departLane="best" departSpeed="max"/>
    <flow id="f_0_25200_EW_bus" begin="25200" end="36000" vehsPerHour="8" route="route_EW" type="bus" departLane="best" departSpeed="max"/>
    <flow id="f_0_25200_WE_s" begin="25200" end="36000" vehsPerHour="595.0" route="route_WE" type="car" departLane="best" departSpeed="max"/>
    <flow id="f_0_25200_WE_l" begin="25200" end="36000" vehsPerHour="127.5" route="route_WN" type="car" departLane="best" departSpeed="max"/>
    <flow id="f_0_25200_WE_r" begin="25200" end="36000" vehsPerHour="127.5" route="route_WS" type="car" departLane="best" departSpeed="max"/>
    <flow id="f_0_25200_WE_bike" begin="25200" end="36000" vehsPerHour="85.0" route="route_WE" type="bike" departLane="best" departSpeed="max"/>
    <flow id="f_0_25200_WE_bus" begin="25200" end="36000" vehsPerHour="8" route="route_WE" type="bus" departLane="best" departSpeed="max"/>
    <flow id="f_0_36000_NS_s" begin="36000" end="57600" vehsPerHour="315.0" route="route_NS" type="car" departLane="best" departSpeed="max"/>
    <flow id="f_0_36000_NS_l" begin="36000" end="57600" vehsPerHour="67.5" route="route_NE" type="car" departLane="best" departSpeed="max"/>
    <flow id="f_0_36000_NS_r" begin="36000" end="57600" vehsPerHour="67.5" route="route_NW" type="car" departLane="best" departSpeed="max"/>
    <flow id="f_0_36000_NS_bike" begin="36000" end="57600" vehsPerHour="45.0" route="route_NS" type="bike" departLane="best" departSpeed="max"/>
    <flow id="f_0_36000_NS_bus" begin="36000" end="57600" vehsPerHour="8" route="route_NS" type="bus" departLane="best" departSpeed="max"/>
    <flow id="f_0_36000_SN_s" begin="36000" end="57600" vehsPerHour="315.0" route="route_SN" type="car" departLane="best" departSpeed="max"/>
    <flow id="f_0_36000_SN_l" begin="36000" end="57600" vehsPerHour="67.5" route="route_SW" type="car" departLane="best" departSpeed="max"/>
    <flow id="f_0_36000_SN_r" begin="36000" end="57600" vehsPerHour="67.5" route="route_SE" type="car" departLane="best" departSpeed="max"/>
    <flow id="f_0_36000_SN_bike" begin="36000" end="57600" vehsPerHour="45.0" route="route_SN" type="bike" departLane="best" departSpeed="max"/>
    <flow id="f_0_36000_SN_bus" begin="36000" end="57600" vehsPerHour="8" route="route_SN" type="bus" departLane="best" departSpeed="max"/>
    <flow id="f_0_36000_EW_s" begin="36000" end="57600" vehsPerHour="315.0" route="route_EW" type="car" departLane="best" departSpeed="max"/>
    <flow id="f_0_36000_EW_l" begin="36000" end="57600" vehsPerHour="67.5" route="route_ES" type="car" departLane="best" departSpeed="max"/>
    <flow id="f_0_36000_EW_r" begin="36000" end="57600" vehsPerHour="67.5" route="route_EN" type="car" departLane="best" departSpeed="max"/>
    <flow id="f_0_36000_EW_bike" begin="36000" end="57600" vehsPerHour="45.0" route="route_EW" type="bike" departLane="best" departSpeed="max"/>
    <flow id="f_0_36000_EW_bus" begin="36000" end="57600" vehsPerHour="8" route="route_EW" type="bus" departLane="best" departSpeed="max"/>
    <flow id="f_0_36000_WE_s" begin="36000" end="57600" vehsPerHour="315.0" route="route_WE" type="car" departLane="best" departSpeed="max"/>
    <flow id="f_0_36000_WE_l" begin="36000" end="57600" vehsPerHour="67.5" route="route_WN" type="car" departLane="best" departSpeed="max"/>
    <flow id="f_0_36000_WE_r" begin="36000" end="57600" vehsPerHour="67.5" route="route_WS" type="car" departLane="best" departSpeed="max"/>
    <flow id="f_0_36000_WE_bike" begin="36000" end="57600" vehsPerHour="45.0" route="route_WE" type="bike" departLane="best" departSpeed="max"/>
    <flow id="f_0_36000_WE_bus" begin="36000" end="57600" vehsPerHour="8" route="route_WE" type="bus" departLane="best" departSpeed="max"/>
    <flow id="f_0_57600_NS_s" begin="57600" end="72000" vehsPerHour="665.0" route="route_NS" type="car" departLane="best" departSpeed="max"/>
    <flow id="f_0_57600_NS_l" begin="57600" end="72000" vehsPerHour="142.5" route="route_NE" type="car" departLane="best" departSpeed="max"/>
    <flow id="f_0_57600_NS_r" begin="57600" end="72000" vehsPerHour="142.5" route="route_NW" type="car" departLane="best" departSpeed="max"/>
    <flow id="f_0_57600_NS_bike" begin="57600" end="72000" vehsPerHour="95.0" route="route_NS" type="bike" departLane="best" departSpeed="max"/>
    <flow id="f_0_57600_NS_bus" begin="57600" end="72000" vehsPerHour="8" route="route_NS" type="bus" departLane="best" departSpeed="max"/>
    <flow id="f_0_57600_SN_s" begin="57600" end="72000" vehsPerHour="665.0" route="route_SN" type="car" departLane="best" departSpeed="max"/>
    <flow id="f_0_57600_SN_l" begin="57600" end="72000" vehsPerHour="142.5" route="route_SW" type="car" departLane="best" departSpeed="max"/>
    <flow id="f_0_57600_SN_r" begin="57600" end="72000" vehsPerHour="142.5" route="route_SE" type="car" departLane="best" departSpeed="max"/>
    <flow id="f_0_57600_SN_bike" begin="57600" end="72000" vehsPerHour="95.0" route="route_SN" type="bike" departLane="best" departSpeed="max"/>
    <flow id="f_0_57600_SN_bus" begin="57600" end="72000" vehsPerHour="8" route="route_SN" type="bus" departLane="best" departSpeed="max"/>
    <flow id="f_0_57600_EW_s" begin="57600" end="72000" vehsPerHour="665.0" route="route_EW" type="car" departLane="best" departSpeed="max"/>
    <flow id="f_0_57600_EW_l" begin="57600" end="72000" vehsPerHour="142.5" route="route_ES" type="car" departLane="best" departSpeed="max"/>
    <flow id="f_0_57600_EW_r" begin="57600" end="72000" vehsPerHour="142.5" route="route_EN" type="car" departLane="best" departSpeed="max"/>
    <flow id="f_0_57600_EW_bike" begin="57600" end="72000" vehsPerHour="95.0" route="route_EW" type="bike" departLane="best" departSpeed="max"/>
    <flow id="f_0_57600_EW_bus" begin="57600" end="72000" vehsPerHour="8" route="route_EW" type="bus" departLane="best" departSpeed="max"/>
    <flow id="f_0_57600_WE_s" begin="57600" end="72000" vehsPerHour="665.0" route="route_WE" type="car" departLane="best" departSpeed="max"/>
    <flow id="f_0_57600_WE_l" begin="57600" end="72000" vehsPerHour="142.5" route="route_WN" type="car" departLane="best" departSpeed="max"/>
    <flow id="f_0_57600_WE_r" begin="57600" end="72000" vehsPerHour="142.5" route="route_WS" type="car" departLane="best" departSpeed="max"/>
    <flow id="f_0_57600_WE_bike" begin="57600" end="72000" vehsPerHour="95.0" route="route_WE" type="bike" departLane="best" departSpeed="max"/>
    <flow id="f_0_57600_WE_bus" begin="57600" end="72000" vehsPerHour="8" route="route_WE" type="bus" departLane="best" departSpeed="max"/>
    <flow id="f_0_72000_NS_s" begin="72000" end="86400" vehsPerHour="140.0" route="route_NS" type="car" departLane="best" departSpeed="max"/>
    <flow id="f_0_72000_NS_l" begin="72000" end="86400" vehsPerHour="30.0" route="route_NE" type="car" departLane="best" departSpeed="max"/>
    <flow id="f_0_72000_NS_r" begin="72000" end="86400" vehsPerHour="30.0" route="route_NW" type="car" departLane="best" departSpeed="max"/>
    <flow id="f_0_72000_SN_s" begin="72000" end="86400" vehsPerHour="140.0" route="route_SN" type="car" departLane="best" departSpeed="max"/>
    <flow id="f_0_72000_SN_l" begin="72000" end="86400" vehsPerHour="30.0" route="route_SW" type="car" departLane="best" departSpeed="max"/>
    <flow id="f_0_72000_SN_r" begin="72000" end="86400" vehsPerHour="30.0" route="route_SE" type="car" departLane="best" departSpeed="max"/>
    <flow id="f_0_72000_EW_s" begin="72000" end="86400" vehsPerHour="140.0" route="route_EW" type="car" departLane="best" departSpeed="max"/>
    <flow id="f_0_72000_EW_l" begin="72000" end="86400" vehsPerHour="30.0" route="route_ES" type="car" departLane="best" departSpeed="max"/>
    <flow id="f_0_72000_EW_r" begin="72000" end="86400" vehsPerHour="30.0" route="route_EN" type="car" departLane="best" departSpeed="max"/>
    <flow id="f_0_72000_WE_s" begin="72000" end="86400" vehsPerHour="140.0" route="route_WE" type="car" departLane="best" departSpeed="max"/>
    <flow id="f_0_72000_WE_l" begin="72000" end="86400" vehsPerHour="30.0" route="route_WN" type="car" departLane="best" departSpeed="max"/>
    <flow id="f_0_72000_WE_r" begin="72000" end="86400" vehsPerHour="30.0" route="route_WS" type="car" departLane="best" departSpeed="max"/>
    <flow id="f_1_0_NS_s" begin="86400" end="111600" vehsPerHour="105.0" route="route_NS" type="car" departLane="best" departSpeed="max"/>
    <flow id="f_1_0_NS_l" begin="86400" end="111600" vehsPerHour="22.5" route="route_NE" type="car" departLane="best" departSpeed="max"/>
    <flow id="f_1_0_NS_r" begin="86400" end="111600" vehsPerHour="22.5" route="route_NW" type="car" departLane="best" departSpeed="max"/>
    <flow id="f_1_0_SN_s" begin="86400" end="111600" vehsPerHour="105.0" route="route_SN" type="car" departLane="best" departSpeed="max"/>
    <flow id="f_1_0_SN_l" begin="86400" end="111600" vehsPerHour="22.5" route="route_SW" type="car" departLane="best" departSpeed="max"/>
    <flow id="f_1_0_SN_r" begin="86400" end="111600" vehsPerHour="22.5" route="route_SE" type="car" departLane="best" departSpeed="max"/>
    <flow id="f_1_0_EW_s" begin="86400" end="111600" vehsPerHour="105.0" route="route_EW" type="car" departLane="best" departSpeed="max"/>
    <flow id="f_1_0_EW_l" begin="86400" end="111600" vehsPerHour="22.5" route="route_ES" type="car" departLane="best" departSpeed="max"/>
    <flow id="f_1_0_EW_r" begin="86400" end="111600" vehsPerHour="22.5" route="route_EN" type="car" departLane="best" departSpeed="max"/>
    <flow id="f_1_0_WE_s" begin="86400" end="111600" vehsPerHour="105.0" route="route_WE" type="car" departLane="best" departSpeed="max"/>
    <flow id="f_1_0_WE_l" begin="86400" end="111600" vehsPerHour="22.5" route="route_WN" type="car" departLane="best" departSpeed="max"/>
    <flow id="f_1_0_WE_r" begin="86400" end="111600" vehsPerHour="22.5" route="route_WS" type="car" departLane="best" departSpeed="max"/>
    <flow id="f_1_25200_NS_s" begin="111600" end="122400" vehsPerHour="595.0" route="route_NS" type="car" departLane="best" departSpeed="max"/>
    <flow id="f_1_25200_NS_l" begin="111600" end="122400" vehsPerHour="127.5" route="route_NE" type="car" departLane="best" departSpeed="max"/>
    <flow id="f_1_25200_NS_r" begin="111600" end="122400" vehsPerHour="127.5" route="route_NW" type="car" departLane="best" departSpeed="max"/>
    <flow id="f_1_25200_NS_bike" begin="111600" end="122400" vehsPerHour="85.0" route="route_NS" type="bike" departLane="best" departSpeed="max"/>
    <flow id="f_1_25200_NS_bus" begin="111600" end="122400" vehsPerHour="8" route="route_NS" type="bus" departLane="best" departSpeed="max"/>
    <flow id="f_1_25200_SN_s" begin="111600" end="122400" vehsPerHour="595.0" route="route_SN" type="car" departLane="best" departSpeed="max"/>
    <flow id="f_1_25200_SN_l" begin="111600" end="122400" vehsPerHour="127.5" route="route_SW" type="car" departLane="best" departSpeed="max"/>
    <flow id="f_1_25200_SN_r" begin="111600" end="122400" vehsPerHour="127.5" route="route_SE" type="car" departLane="best" departSpeed="max"/>
    <flow id="f_1_25200_SN_bike" begin="111600" end="122400" vehsPerHour="85.0" route="route_SN" type="bike" departLane="best" departSpeed="max"/>
    <flow id="f_1_25200_SN_bus" begin="111600" end="122400" vehsPerHour="8" route="route_SN" type="bus" departLane="best" departSpeed="max"/>
    <flow id="f_1_25200_EW_s" begin="111600" end="122400" vehsPerHour="595.0" route="route_EW" type="car" departLane="best" departSpeed="max"/>
    <flow id="f_1_25200_EW_l" begin="111600" end="122400" vehsPerHour="127.5" route="route_ES" type="car" departLane="best" departSpeed="max"/>
    <flow id="f_1_25200_EW_r" begin="111600" end="122400" vehsPerHour="127.5" route="route_EN" type="car" departLane="best" departSpeed="max"/>
    <flow id="f_1_25200_EW_bike" begin="111600" end="122400" vehsPerHour="85.0" route="route_EW" type="bike" departLane="best" departSpeed="max"/>
    <flow id="f_1_25200_EW_bus" begin="111600" end="122400" vehsPerHour="8" route="route_EW" type="bus" departLane="best" departSpeed="max"/>
    <flow id="f_1_25200_WE_s" begin="111600" end="122400" vehsPerHour="595.0" route="route_WE" type="car" departLane="best" departSpeed="max"/>
    <flow id="f_1_25200_WE_l" begin="111600" end="122400" vehsPerHour="127.5" route="route_WN" type="car" departLane="best" departSpeed="max"/>
    <flow id="f_1_25200_WE_r" begin="111600" end="122400" vehsPerHour="127.5" route="route_WS" type="car" departLane="best" departSpeed="max"/>
    <flow id="f_1_25200_WE_bike" begin="111600" end="122400" vehsPerHour="85.0" route="route_WE" type="bike" departLane="best" departSpeed="max"/>
    <flow id="f_1_25200_WE_bus" begin="111600" end="122400" vehsPerHour="8" route="route_WE" type="bus" departLane="best" departSpeed="max"/>
    <flow id="f_1_36000_NS_s" begin="122400" end="144000" vehsPerHour="315.0" route="route_NS" type="car" departLane="best" departSpeed="max"/>
    <flow id="f_1_36000_NS_l" begin="122400" end="144000" vehsPerHour="67.5" route="route_NE" type="car" departLane="best" departSpeed="max"/>
    <flow id="f_1_36000_NS_r" begin="122400" end="144000" vehsPerHour="67.5" route="route_NW" type="car" departLane="best" departSpeed="max"/>
    <flow id="f_1_36000_NS_bike" begin="122400" end="144000" vehsPerHour="45.0" route="route_NS" type="bike" departLane="best" departSpeed="max"/>
    <flow id="f_1_36000_NS_bus" begin="122400" end="144000" vehsPerHour="8" route="route_NS" type="bus" departLane="best" departSpeed="max"/>
    <flow id="f_1_36000_SN_s" begin="122400" end="144000" vehsPerHour="315.0" route="route_SN" type="car" departLane="best" departSpeed="max"/>
    <flow id="f_1_36000_SN_l" begin="122400" end="144000" vehsPerHour="67.5" route="route_SW" type="car" departLane="best" departSpeed="max"/>
    <flow id="f_1_36000_SN_r" begin="122400" end="144000" vehsPerHour="67.5" route="route_SE" type="car" departLane="best" departSpeed="max"/>
    <flow id="f_1_36000_SN_bike" begin="122400" end="144000" vehsPerHour="45.0" route="route_SN" type="bike" departLane="best" departSpeed="max"/>
    <flow id="f_1_36000_SN_bus" begin="122400" end="144000" vehsPerHour="8" route="route_SN" type="bus" departLane="best" departSpeed="max"/>
    <flow id="f_1_36000_EW_s" begin="122400" end="144000" vehsPerHour="315.0" route="route_EW" type="car" departLane="best" departSpeed="max"/>
    <flow id="f_1_36000_EW_l" begin="122400" end="144000" vehsPerHour="67.5" route="route_ES" type="car" departLane="best" departSpeed="max"/>
    <flow id="f_1_36000_EW_r" begin="122400" end="144000" vehsPerHour="67.5" route="route_EN" type="car" departLane="best" departSpeed="max"/>
    <flow id="f_1_36000_EW_bike" begin="122400" end="144000" vehsPerHour="45.0" route="route_EW" type="bike" departLane="best" departSpeed="max"/>
    <flow id="f_1_36000_EW_bus" begin="122400" end="144000" vehsPerHour="8" route="route_EW" type="bus" departLane="best" departSpeed="max"/>
    <flow id="f_1_36000_WE_s" begin="122400" end="144000" vehsPerHour="315.0" route="route_WE" type="car" departLane="best" departSpeed="max"/>
    <flow id="f_1_36000_WE_l" begin="122400" end="144000" vehsPerHour="67.5" route="route_WN" type="car" departLane="best" departSpeed="max"/>
    <flow id="f_1_36000_WE_r" begin="122400" end="144000" vehsPerHour="67.5" route="route_WS" type="car" departLane="best" departSpeed="max"/>
    <flow id="f_1_36000_WE_bike" begin="122400" end="144000" vehsPerHour="45.0" route="route_WE" type="bike" departLane="best" departSpeed="max"/>
    <flow id="f_1_36000_WE_bus" begin="122400" end="144000" vehsPerHour="8" route="route_WE" type="bus" departLane="best" departSpeed="max"/>
    <flow id="f_1_57600_NS_s" begin="144000" end="158400" vehsPerHour="665.0" route="route_NS" type="car" departLane="best" departSpeed="max"/>
    <flow id="f_1_57600_NS_l" begin="144000" end="158400" vehsPerHour="142.5" route="route_NE" type="car" departLane="best" departSpeed="max"/>
    <flow id="f_1_57600_NS_r" begin="144000" end="158400" vehsPerHour="142.5" route="route_NW" type="car" departLane="best" departSpeed="max"/>
    <flow id="f_1_57600_NS_bike" begin="144000" end="158400" vehsPerHour="95.0" route="route_NS" type="bike" departLane="best" departSpeed="max"/>
    <flow id="f_1_57600_NS_bus" begin="144000" end="158400" vehsPerHour="8" route="route_NS" type="bus" departLane="best" departSpeed="max"/>
    <flow id="f_1_57600_SN_s" begin="144000" end="158400" vehsPerHour="665.0" route="route_SN" type="car" departLane="best" departSpeed="max"/>
    <flow id="f_1_57600_SN_l" begin="144000" end="158400" vehsPerHour="142.5" route="route_SW" type="car" departLane="best" departSpeed="max"/>
    <flow id="f_1_57600_SN_r" begin="144000" end="158400" vehsPerHour="142.5" route="route_SE" type="car" departLane="best" departSpeed="max"/>
    <flow id="f_1_57600_SN_bike" begin="144000" end="158400" vehsPerHour="95.0" route="route_SN" type="bike" departLane="best" departSpeed="max"/>
    <flow id="f_1_57600_SN_bus" begin="144000" end="158400" vehsPerHour="8" route="route_SN" type="bus" departLane="best" departSpeed="max"/>
    <flow id="f_1_57600_EW_s" begin="144000" end="158400" vehsPerHour="665.0" route="route_EW" type="car" departLane="best" departSpeed="max"/>
    <flow id="f_1_57600_EW_l" begin="144000" end="158400" vehsPerHour="142.5" route="route_ES" type="car" departLane="best" departSpeed="max"/>
    <flow id="f_1_57600_EW_r" begin="144000" end="158400" vehsPerHour="142.5" route="route_EN" type="car" departLane="best" departSpeed="max"/>
    <flow id="f_1_57600_EW_bike" begin="144000" end="158400" vehsPerHour="95.0" route="route_EW" type="bike" departLane="best" departSpeed="max"/>
    <flow id="f_1_57600_EW_bus" begin="144000" end="158400" vehsPerHour="8" route="route_EW" type="bus" departLane="best" departSpeed="max"/>
    <flow id="f_1_57600_WE_s" begin="144000" end="158400" vehsPerHour="665.0" route="route_WE" type="car" departLane="best" departSpeed="max"/>
    <flow id="f_1_57600_WE_l" begin="144000" end="158400" vehsPerHour="142.5" route="route_WN" type="car" departLane="best" departSpeed="max"/>
    <flow id="f_1_57600_WE_r" begin="144000" end="158400" vehsPerHour="142.5" route="route_WS" type="car" departLane="best" departSpeed="max"/>
    <flow id="f_1_57600_WE_bike" begin="144000" end="158400" vehsPerHour="95.0" route="route_WE" type="bike" departLane="best" departSpeed="max"/>
    <flow id="f_1_57600_WE_bus" begin="144000" end="158400" vehsPerHour="8" route="route_WE" type="bus" departLane="best" departSpeed="max"/>
    <flow id="f_1_72000_NS_s" begin="158400" end="172800" vehsPerHour="140.0" route="route_NS" type="car" departLane="best" departSpeed="max"/>
    <flow id="f_1_72000_NS_l" begin="158400" end="172800" vehsPerHour="30.0" route="route_NE" type="car" departLane="best" departSpeed="max"/>
    <flow id="f_1_72000_NS_r" begin="158400" end="172800" vehsPerHour="30.0" route="route_NW" type="car" departLane="best" departSpeed="max"/>
    <flow id="f_1_72000_SN_s" begin="158400" end="172800" vehsPerHour="140.0" route="route_SN" type="car" departLane="best" departSpeed="max"/>
    <flow id="f_1_72000_SN_l" begin="158400" end="172800" vehsPerHour="30.0" route="route_SW" type="car" departLane="best" departSpeed="max"/>
    <flow id="f_1_72000_SN_r" begin="158400" end="172800" vehsPerHour="30.0" route="route_SE" type="car" departLane="best" departSpeed="max"/>
    <flow id="f_1_72000_EW_s" begin="158400" end="172800" vehsPerHour="140.0" route="route_EW" type="car" departLane="best" departSpeed="max"/>
    <flow id="f_1_72000_EW_l" begin="158400" end="172800" vehsPerHour="30.0" route="route_ES" type="car" departLane="best" departSpeed="max"/>
    <flow id="f_1_72000_EW_r" begin="158400" end="172800" vehsPerHour="30.0" route="route_EN" type="car" departLane="best" departSpeed="max"/>
    <flow id="f_1_72000_WE_s" begin="158400" end="172800" vehsPerHour="140.0" route="route_WE" type="car" departLane="best" departSpeed="max"/>
    <flow id="f_1_72000_WE_l" begin="158400" end="172800" vehsPerHour="30.0" route="route_WN" type="car" departLane="best" departSpeed="max"/>
    <flow id="f_1_72000_WE_r" begin="158400" end="172800" vehsPerHour="30.0" route="route_WS" type="car" departLane="best" departSpeed="max"/>
    <flow id="f_2_0_NS_s" begin="172800" end="198000" vehsPerHour="105.0" route="route_NS" type="car" departLane="best" departSpeed="max"/>
    <flow id="f_2_0_NS_l" begin="172800" end="198000" vehsPerHour="22.5" route="route_NE" type="car" departLane="best" departSpeed="max"/>
    <flow id="f_2_0_NS_r" begin="172800" end="198000" vehsPerHour="22.5" route="route_NW" type="car" departLane="best" departSpeed="max"/>
    <flow id="f_2_0_SN_s" begin="172800" end="198000" vehsPerHour="105.0" route="route_SN" type="car" departLane="best" departSpeed="max"/>
    <flow id="f_2_0_SN_l" begin="172800" end="198000" vehsPerHour="22.5" route="route_SW" type="car" departLane="best" departSpeed="max"/>
    <flow id="f_2_0_SN_r" begin="172800" end="198000" vehsPerHour="22.5" route="route_SE" type="car" departLane="best" departSpeed="max"/>
    <flow id="f_2_0_EW_s" begin="172800" end="198000" vehsPerHour="105.0" route="route_EW" type="car" departLane="best" departSpeed="max"/>
    <flow id="f_2_0_EW_l" begin="172800" end="198000" vehsPerHour="22.5" route="route_ES" type="car" departLane="best" departSpeed="max"/>
    <flow id="f_2_0_EW_r" begin="172800" end="198000" vehsPerHour="22.5" route="route_EN" type="car" departLane="best" departSpeed="max"/>
    <flow id="f_2_0_WE_s" begin="172800" end="198000" vehsPerHour="105.0" route="route_WE" type="car" departLane="best" departSpeed="max"/>
    <flow id="f_2_0_WE_l" begin="172800" end="198000" vehsPerHour="22.5" route="route_WN" type="car" departLane="best" departSpeed="max"/>
    <flow id="f_2_0_WE_r" begin="172800" end="198000" vehsPerHour="22.5" route="route_WS" type="car" departLane="best" departSpeed="max"/>
    <flow id="f_2_25200_NS_s" begin="198000" end="208800" vehsPerHour="595.0" route="route_NS" type="car" departLane="best" departSpeed="max"/>
    <flow id="f_2_25200_NS_l" begin="198000" end="208800" vehsPerHour="127.5" route="route_NE" type="car" departLane="best" departSpeed="max"/>
    <flow id="f_2_25200_NS_r" begin="198000" end="208800" vehsPerHour="127.5" route="route_NW" type="car" departLane="best" departSpeed="max"/>
    <flow id="f_2_25200_NS_bike" begin="198000" end="208800" vehsPerHour="85.0" route="route_NS" type="bike" departLane="best" departSpeed="max"/>
    <flow id="f_2_25200_NS_bus" begin="198000" end="208800" vehsPerHour="8" route="route_NS" type="bus" departLane="best" departSpeed="max"/>
    <flow id="f_2_25200_SN_s" begin="198000" end="208800" vehsPerHour="595.0" route="route_SN" type="car" departLane="best" departSpeed="max"/>
    <flow id="f_2_25200_SN_l" begin="198000" end="208800" vehsPerHour="127.5" route="route_SW" type="car" departLane="best" departSpeed="max"/>
    <flow id="f_2_25200_SN_r" begin="198000" end="208800" vehsPerHour="127.5" route="route_SE" type="car" departLane="best" departSpeed="max"/>
    <flow id="f_2_25200_SN_bike" begin="198000" end="208800" vehsPerHour="85.0" route="route_SN" type="bike" departLane="best" departSpeed="max"/>
    <flow id="f_2_25200_SN_bus" begin="198000" end="208800" vehsPerHour="8" route="route_SN" type="bus" departLane="best" departSpeed="max"/>
    <flow id="f_2_25200_EW_s" begin="198000" end="208800" vehsPerHour="595.0" route="route_EW" type="car" departLane="best" departSpeed="max"/>
    <flow id="f_2_25200_EW_l" begin="198000" end="208800" vehsPerHour="127.5" route="route_ES" type="car" departLane="best" departSpeed="max"/>
    <flow id="f_2_25200_EW_r" begin="198000" end="208800" vehsPerHour="127.5" route="route_EN" type="car" departLane="best" departSpeed="max"/>
    <flow id="f_2_25200_EW_bike" begin="198000" end="208800" vehsPerHour="85.0" route="route_EW" type="bike" departLane="best" departSpeed="max"/>
    <flow id="f_2_25200_EW_bus" begin="198000" end="208800" vehsPerHour="8" route="route_EW" type="bus" departLane="best" departSpeed="max"/>
    <flow id="f_2_25200_WE_s" begin="198000" end="208800" vehsPerHour="595.0" route="route_WE" type="car" departLane="best" departSpeed="max"/>
    <flow id="f_2_25200_WE_l" begin="198000" end="208800" vehsPerHour="127.5" route="route_WN" type="car" departLane="best" departSpeed="max"/>
    <flow id="f_2_25200_WE_r" begin="198000" end="208800" vehsPerHour="127.5" route="route_WS" type="car" departLane="best" departSpeed="max"/>
    <flow id="f_2_25200_WE_bike" begin="198000" end="208800" vehsPerHour="85.0" route="route_WE" type="bike" departLane="best" departSpeed="max"/>
    <flow id="f_2_25200_WE_bus" begin="198000" end="208800" vehsPerHour="8" route="route_WE" type="bus" departLane="best" departSpeed="max"/>