<?xml version="1.0" encoding="UTF-8"?>

<net version="0.13" xmlns:xsi="http://www.w3.org/2001/XMLSchema-instance" xsi:noNamespaceSchemaLocation="https://sumo-sim.org/xsd/net_file.xsd">

    <location netOffset="0.00,0.00" convBoundary="0.00,0.00,1000.00,1000.00" origBoundary="0.00,0.00,1000.00,1000.00" projParameter="!"/>

    <edge id=":West_End_0" function="internal">
        <lane id=":West_End_0_0" index="0" speed="13.89" length="4.82" shape="0.00,501.65 -1.24,500.82 -1.65,500.00 -1.24,499.18 0.00,498.35"/>
    </edge>
    <edge id=":West_Split_0" function="internal">
        <lane id=":West_Split_0_0" index="0" speed="13.89" length="3.73" shape="398.50,498.35 401.50,495.05"/>
        <lane id=":West_Split_0_1" index="1" speed="13.89" length="3.73" shape="398.50,498.35 401.50,498.35"/>
    </edge>
    <edge id=":South_End_0" function="internal">
        <lane id=":South_End_0_0" index="0" speed="13.89" length="4.82" shape="498.35,0.00 499.18,-1.24 500.00,-1.65 500.82,-1.24 501.65,0.00"/>
    </edge>
    <edge id=":South_Split_0" function="internal">
        <lane id=":South_Split_0_0" index="0" speed="13.89" length="3.73" shape="501.65,398.50 504.95,401.50"/>
        <lane id=":South_Split_0_1" index="1" speed="13.89" length="3.73" shape="501.65,398.50 501.65,401.50"/>
    </edge>
    <edge id=":Center_0" function="internal">
        <lane id=":Center_0_0" index="0" speed="13.89" length="7.85" shape="495.05,508.05 494.86,505.25 494.28,503.25 493.31,502.05 491.95,501.65"/>
    </edge>
    <edge id=":Center_1" function="internal">
        <lane id=":Center_1_0" index="0" speed="13.89" length="16.51" shape="495.05,508.05 495.57,502.77 496.70,498.79 497.83,495.42 498.35,491.95"/>
    </edge>
    <edge id=":Center_2" function="internal">
        <lane id=":Center_2_0" index="0" speed="13.89" length="4.74" shape="498.35,508.05 498.96,503.81 499.19,503.41"/>
    </edge>
    <edge id=":Center_12" function="internal">
        <lane id=":Center_12_0" index="0" speed="13.89" length="10.90" shape="499.19,503.41 500.78,500.77 503.81,498.96 508.05,498.35"/>
    </edge>
    <edge id=":Center_3" function="internal">
        <lane id=":Center_3_0" index="0" speed="13.89" length="7.85" shape="508.05,504.95 505.25,505.14 503.25,505.72 502.05,506.69 501.65,508.05"/>
    </edge>
    <edge id=":Center_4" function="internal">
        <lane id=":Center_4_0" index="0" speed="13.89" length="16.51" shape="508.05,504.95 502.77,504.43 498.79,503.30 495.42,502.17 491.95,501.65"/>
    </edge>
    <edge id=":Center_5" function="internal">
        <lane id=":Center_5_0" index="0" speed="13.89" length="4.74" shape="508.05,501.65 503.81,501.04 503.41,500.81"/>
    </edge>
    <edge id=":Center_13" function="internal">
        <lane id=":Center_13_0" index="0" speed="13.89" length="10.90" shape="503.41,500.81 500.77,499.22 498.96,496.19 498.35,491.95"/>
    </edge>
    <edge id=":Center_6" function="internal">
        <lane id=":Center_6_0" index="0" speed="13.89" length="7.85" shape="504.95,491.95 505.14,494.75 505.72,496.75 506.69,497.95 508.05,498.35"/>
    </edge>
    <edge id=":Center_7" function="internal">
        <lane id=":Center_7_0" index="0" speed="13.89" length="16.51" shape="504.95,491.95 504.43,497.23 503.30,501.21 502.17,504.58 501.65,508.05"/>
    </edge>
    <edge id=":Center_8" function="internal">
        <lane id=":Center_8_0" index="0" speed="13.89" length="4.74" shape="501.65,491.95 501.04,496.19 500.81,496.59"/>
    </edge>
    <edge id=":Center_14" function="internal">
        <lane id=":Center_14_0" index="0" speed="13.89" length="10.90" shape="500.81,496.59 499.22,499.23 496.19,501.04 491.95,501.65"/>
    </edge>
    <edge id=":Center_9" function="internal">
        <lane id=":Center_9_0" index="0" speed="13.89" length="7.85" shape="491.95,495.05 494.75,494.86 496.75,494.28 497.95,493.31 498.35,491.95"/>
    </edge>
    <edge id=":Center_10" function="internal">
        <lane id=":Center_10_0" index="0" speed="13.89" length="16.51" shape="491.95,495.05 497.23,495.57 501.21,496.70 504.58,497.83 508.05,498.35"/>
    </edge>
    <edge id=":Center_11" function="internal">
        <lane id=":Center_11_0" index="0" speed="13.89" length="4.74" shape="491.95,498.35 496.19,498.96 496.59,499.19"/>
    </edge>
    <edge id=":Center_15" function="internal">
        <lane id=":Center_15_0" index="0" speed="13.89" length="10.90" shape="496.59,499.19 499.23,500.78 501.04,503.81 501.65,508.05"/>
    </edge>
    <edge id=":West_Exit_Split_0" function="internal">
        <lane id=":West_Exit_Split_0_0" index="0" speed="13.89" length="3.73" shape="101.50,501.65 98.50,504.95"/>
        <lane id=":West_Exit_Split_0_1" index="1" speed="13.89" length="3.73" shape="101.50,501.65 98.50,501.65"/>
    </edge>
    <edge id=":South_Exit_Split_0" function="internal">
        <lane id=":South_Exit_Split_0_0" index="0" speed="13.89" length="3.73" shape="498.35,101.50 495.05,98.50"/>
        <lane id=":South_Exit_Split_0_1" index="1" speed="13.89" length="3.73" shape="498.35,101.50 498.35,98.50"/>
    </edge>
    <edge id=":North_Exit_Split_0" function="internal">
        <lane id=":North_Exit_Split_0_0" index="0" speed="13.89" length="3.73" shape="501.65,898.50 504.95,901.50"/>
        <lane id=":North_Exit_Split_0_1" index="1" speed="13.89" length="3.73" shape="501.65,898.50 501.65,901.50"/>
    </edge>
    <edge id=":East_Exit_Split_0" function="internal">
        <lane id=":East_Exit_Split_0_0" index="0" speed="13.89" length="3.73" shape="898.50,498.35 901.50,495.05"/>
        <lane id=":East_Exit_Split_0_1" index="1" speed="13.89" length="3.73" shape="898.50,498.35 901.50,498.35"/>
    </edge>
    <edge id=":North_End_0" function="internal">
        <lane id=":North_End_0_0" index="0" speed="13.89" length="4.82" shape="501.65,1000.00 500.82,1001.24 500.00,1001.65 499.18,1001.24 498.35,1000.00"/>
    </edge>
    <edge id=":North_Split_0" function="internal">
        <lane id=":North_Split_0_0" index="0" speed="13.89" length="3.73" shape="498.35,601.50 495.05,598.50"/>
        <lane id=":North_Split_0_1" index="1" speed="13.89" length="3.73" shape="498.35,601.50 498.35,598.50"/>
    </edge>
    <edge id=":East_End_0" function="internal">
        <lane id=":East_End_0_0" index="0" speed="13.89" length="4.82" shape="1000.00,498.35 1001.24,499.18 1001.65,500.00 1001.24,500.82 1000.00,501.65"/>
    </edge>
    <edge id=":East_Split_0" function="internal">
        <lane id=":East_Split_0_0" index="0" speed="13.89" length="3.73" shape="601.50,501.65 598.50,504.95"/>
        <lane id=":East_Split_0_1" index="1" speed="13.89" length="3.73" shape="601.50,501.65 598.50,501.65"/>
    </edge>

    <edge id="West_Entrance_Far" from="West_End" to="West_Split" priority="-1">
        <lane id="West_Entrance_Far_0" index="0" speed="13.89" length="398.50" shape="0.00,498.35 398.50,498.35"/>
    </edge>
    <edge id="West_Entrance" from="West_Split" to="Center" priority="-1">
        <lane id="West_Entrance_0" index="0" speed="13.89" length="90.45" shape="401.50,495.05 491.95,495.05"/>
        <lane id="West_Entrance_1" index="1" speed="13.89" length="90.45" shape="401.50,498.35 491.95,498.35"/>
    </edge>
    <edge id="South_Entrance_Far" from="South_End" to="South_Split" priority="-1">
        <lane id="South_Entrance_Far_0" index="0" speed="13.89" length="398.50" shape="501.65,0.00 501.65,398.50"/>
    </edge>
    <edge id="South_Entrance" from="South_Split" to="Center" priority="-1">
        <lane id="South_Entrance_0" index="0" speed="13.89" length="90.45" shape="504.95,401.50 504.95,491.95"/>
        <lane id="South_Entrance_1" index="1" speed="13.89" length="90.45" shape="501.65,401.50 501.65,491.95"/>
    </edge>
    <edge id="West_Exit" from="Center" to="West_Exit_Split" priority="-1">
        <lane id="West_Exit_0" index="0" speed="13.89" length="390.45" shape="491.95,501.65 101.50,501.65"/>
    </edge>
    <edge id="West_Exit_Far" from="West_Exit_Split" to="West_End" priority="-1">
        <lane id="West_Exit_Far_0" index="0" speed="13.89" length="98.50" shape="98.50,504.95 0.00,504.95"/>
        <lane id="West_Exit_Far_1" index="1" speed="13.89" length="98.50" shape="98.50,501.65 0.00,501.65"/>
    </edge>
    <edge id="South_Exit" from="Center" to="South_Exit_Split" priority="-1">
        <lane id="South_Exit_0" index="0" speed="13.89" length="390.45" shape="498.35,491.95 498.35,101.50"/>
    </edge>
    <edge id="South_Exit_Far" from="South_Exit_Split" to="South_End" priority="-1">
        <lane id="South_Exit_Far_0" index="0" speed="13.89" length="98.50" shape="495.05,98.50 495.05,0.00"/>
        <lane id="South_Exit_Far_1" index="1" speed="13.89" length="98.50" shape="498.35,98.50 498.35,0.00"/>
    </edge>
    <edge id="North_Exit" from="Center" to="North_Exit_Split" priority="-1">
        <lane id="North_Exit_0" index="0" speed="13.89" length="390.45" shape="501.65,508.05 501.65,898.50"/>
    </edge>
    <edge id="North_Exit_Far" from="North_Exit_Split" to="North_End" priority="-1">
        <lane id="North_Exit_Far_0" index="0" speed="13.89" length="98.50" shape="504.95,901.50 504.95,1000.00"/>
        <lane id="North_Exit_Far_1" index="1" speed="13.89" length="98.50" shape="501.65,901.50 501.65,1000.00"/>
    </edge>
    <edge id="East_Exit" from="Center" to="East_Exit_Split" priority="-1">
        <lane id="East_Exit_0" index="0" speed="13.89" length="390.45" shape="508.05,498.35 898.50,498.35"/>
    </edge>
    <edge id="East_Exit_Far" from="East_Exit_Split" to="East_End" priority="-1">
        <lane id="East_Exit_Far_0" index="0" speed="13.89" length="98.50" shape="901.50,495.05 1000.00,495.05"/>
        <lane id="East_Exit_Far_1" index="1" speed="13.89" length="98.50" shape="901.50,498.35 1000.00,498.35"/>
    </edge>
    <edge id="North_Entrance_Far" from="North_End" to="North_Split" priority="-1">
        <lane id="North_Entrance_Far_0" index="0" speed="13.89" length="398.50" shape="498.35,1000.00 498.35,601.50"/>
    </edge>
    <edge id="North_Entrance" from="North_Split" to="Center" priority="-1">
        <lane id="North_Entrance_0" index="0" speed="13.89" length="90.45" shape="495.05,598.50 495.05,508.05"/>
        <lane id="North_Entrance_1" index="1" speed="13.89" length="90.45" shape="498.35,598.50 498.35,508.05"/>
    </edge>
    <edge id="East_Entrance_Far" from="East_End" to="East_Split" priority="-1">
        <lane id="East_Entrance_Far_0" index="0" speed="13.89" length="398.50" shape="1000.00,501.65 601.50,501.65"/>
    </edge>
    <edge id="East_Entrance" from="East_Split" to="Center" priority="-1">
        <lane id="East_Entrance_0" index="0" speed="13.89" length="90.45" shape="598.50,504.95 508.05,504.95"/>
        <lane id="East_Entrance_1" index="1" speed="13.89" length="90.45" shape="598.50,501.65 508.05,501.65"/>
    </edge>

    <tlLogic id="Center" type="static" programID="0" offset="0">
        <phase duration="31" state="rrrGGgrrrGGg"/>
        <phase duration="4" state="rrryygrrryyg"/>
        <phase duration="6" state="rrrrrGrrrrrG"/>
        <phase duration="4" state="rrrrryrrrrry"/>
        <phase duration="31" state="GGgrrrGGgrrr"/>
        <phase duration="4" state="yygrrryygrrr"/>
        <phase duration="6" state="rrGrrrrrGrrr"/>
        <phase duration="4" state="rryrrrrryrrr"/>
    </tlLogic>

    <junction id="West_End" type="priority" x="0.00" y="500.00" incLanes="West_Exit_Far_0 West_Exit_Far_1" intLanes=":West_End_0_0" shape="-0.00,499.95 -0.00,496.75 0.00,506.55 0.00,500.05">
        <request index="0" response="0" foes="0" cont="0"/>
    </junction>
    <junction id="West_Split" type="priority" x="400.00" y="500.00" incLanes="West_Entrance_Far_0" intLanes=":West_Split_0_0 :West_Split_0_1" shape="401.50,499.95 401.50,493.45 398.50,496.75 398.50,499.95">
        <request index="0" response="00" foes="00" cont="0"/>
        <request index="1" response="00" foes="00" cont="0"/>
    </junction>
    <junction id="South_End" type="priority" x="500.00" y="0.00" incLanes="South_Exit_Far_0 South_Exit_Far_1" intLanes=":South_End_0_0" shape="500.05,-0.00 503.25,-0.00 493.45,0.00 499.95,0.00">
        <request index="0" response="0" foes="0" cont="0"/>
    </junction>
    <junction id="South_Split" type="priority" x="500.00" y="400.00" incLanes="South_Entrance_Far_0" intLanes=":South_Split_0_0 :South_Split_0_1" shape="500.05,401.50 506.55,401.50 503.25,398.50 500.05,398.50">
        <request index="0" response="00" foes="00" cont="0"/>
        <request index="1" response="00" foes="00" cont="0"/>
    </junction>
    <junction id="Center" type="traffic_light" x="500.00" y="500.00" incLanes="North_Entrance_0 North_Entrance_1 East_Entrance_0 East_Entrance_1 South_Entrance_0 South_Entrance_1 West_Entrance_0 West_Entrance_1" intLanes=":Center_0_0 :Center_1_0 :Center_12_0 :Center_3_0 :Center_4_0 :Center_13_0 :Center_6_0 :Center_7_0 :Center_14_0 :Center_9_0 :Center_10_0 :Center_15_0" shape="493.45,508.05 503.25,508.05 508.05,506.55 508.05,496.75 506.55,491.95 496.75,491.95 491.95,493.45 491.95,503.25">
        <request index="0" response="000000000000" foes="000100010000" cont="0"/>
        <request index="1" response="000000000000" foes="111100110000" cont="0"/>
        <request index="2" response="000011000000" foes="110011110000" cont="1"/>
        <request index="3" response="000010000000" foes="100010000000" cont="0"/>
        <request index="4" response="000110000111" foes="100110000111" cont="0"/>
        <request index="5" response="011110000110" foes="011110000110" cont="1"/>
        <request index="6" response="000000000000" foes="010000000100" cont="0"/>
        <request index="7" response="000000000000" foes="110000111100" cont="0"/>
        <request index="8" response="000000000011" foes="110000110011" cont="1"/>
        <request index="9" response="000000000010" foes="000000100010" cont="0"/>
        <request index="10" response="000111000110" foes="000111100110" cont="0"/>
        <request index="11" response="000110011110" foes="000110011110" cont="1"/>
    </junction>
    <junction id="West_Exit_Split" type="priority" x="100.00" y="500.00" incLanes="West_Exit_0" intLanes=":West_Exit_Split_0_0 :West_Exit_Split_0_1" shape="101.50,503.25 101.50,500.05 98.50,500.05 98.50,506.55">
        <request index="0" response="00" foes="00" cont="0"/>
        <request index="1" response="00" foes="00" cont="0"/>
    </junction>
    <junction id="South_Exit_Split" type="priority" x="500.00" y="100.00" incLanes="South_Exit_0" intLanes=":South_Exit_Split_0_0 :South_Exit_Split_0_1" shape="496.75,101.50 499.95,101.50 499.95,98.50 493.45,98.50">
        <request index="0" response="00" foes="00" cont="0"/>
        <request index="1" response="00" foes="00" cont="0"/>
    </junction>
    <junction id="North_Exit_Split" type="priority" x="500.00" y="900.00" incLanes="North_Exit_0" intLanes=":North_Exit_Split_0_0 :North_Exit_Split_0_1" shape="500.05,901.50 506.55,901.50 503.25,898.50 500.05,898.50">
        <request index="0" response="00" foes="00" cont="0"/>
        <request index="1" response="00" foes="00" cont="0"/>
    </junction>
    <junction id="East_Exit_Split" type="priority" x="900.00" y="500.00" incLanes="East_Exit_0" intLanes=":East_Exit_Split_0_0 :East_Exit_Split_0_1" shape="901.50,499.95 901.50,493.45 898.50,496.75 898.50,499.95">
        <request index="0" response="00" foes="00" cont="0"/>
        <request index="1" response="00" foes="00" cont="0"/>
    </junction>
    <junction id="North_End" type="priority" x="500.00" y="1000.00" incLanes="North_Exit_Far_0 North_Exit_Far_1" intLanes=":North_End_0_0" shape="499.95,1000.00 496.75,1000.00 506.55,1000.00 500.05,1000.00">
        <request index="0" response="0" foes="0" cont="0"/>
    </junction>
    <junction id="North_Split" type="priority" x="500.00" y="600.00" incLanes="North_Entrance_Far_0" intLanes=":North_Split_0_0 :North_Split_0_1" shape="496.75,601.50 499.95,601.50 499.95,598.50 493.45,598.50">
        <request index="0" response="00" foes="00" cont="0"/>
        <request index="1" response="00" foes="00" cont="0"/>
    </junction>
    <junction id="East_End" type="priority" x="1000.00" y="500.00" incLanes="East_Exit_Far_0 East_Exit_Far_1" intLanes=":East_End_0_0" shape="1000.00,500.05 1000.00,503.25 1000.00,493.45 1000.00,499.95">
        <request index="0" response="0" foes="0" cont="0"/>
    </junction>
    <junction id="East_Split" type="priority" x="600.00" y="500.00" incLanes="East_Entrance_Far_0" intLanes=":East_Split_0_0 :East_Split_0_1" shape="601.50,503.25 601.50,500.05 598.50,500.05 598.50,506.55">
        <request index="0" response="00" foes="00" cont="0"/>
        <request index="1" response="00" foes="00" cont="0"/>
    </junction>

    <junction id=":Center_12_0" type="internal" x="499.19" y="503.41" incLanes=":Center_2_0 South_Entrance_0" intLanes=":Center_4_0 :Center_5_0 :Center_6_0 :Center_7_0 :Center_10_0 :Center_11_0"/>
    <junction id=":Center_13_0" type="internal" x="503.41" y="500.81" incLanes=":Center_5_0 West_Entrance_0 South_Entrance_0 North_Entrance_0" intLanes=":Center_1_0 :Center_2_0 :Center_7_0 :Center_8_0 :Center_9_0 :Center_10_0"/>
    <junction id=":Center_14_0" type="internal" x="500.81" y="496.59" incLanes=":Center_8_0 North_Entrance_0" intLanes=":Center_0_0 :Center_1_0 :Center_4_0 :Center_5_0 :Center_10_0 :Center_11_0"/>
    <junction id=":Center_15_0" type="internal" x="496.59" y="499.19" incLanes=":Center_11_0 South_Entrance_0 North_Entrance_0 East_Entrance_0" intLanes=":Center_1_0 :Center_2_0 :Center_3_0 :Center_4_0 :Center_7_0 :Center_8_0"/>

    <connection from="West_Entrance_Far" to="West_Entrance" fromLane="0" toLane="0" via=":West_Split_0_0" dir="s" state="M"/>
    <connection from="West_Entrance_Far" to="West_Entrance" fromLane="0" toLane="1" via=":West_Split_0_1" dir="s" state="M"/>
    <connection from="West_Entrance" to="South_Exit" fromLane="0" toLane="0" via=":Center_9_0" tl="Center" linkIndex="9" dir="r" state="o"/>
    <connection from="West_Entrance" to="East_Exit" fromLane="0" toLane="0" via=":Center_10_0" tl="Center" linkIndex="10" dir="s" state="o"/>
    <connection from="West_Entrance" to="North_Exit" fromLane="1" toLane="0" via=":Center_11_0" tl="Center" linkIndex="11" dir="l" state="o"/>
    <connection from="South_Entrance_Far" to="South_Entrance" fromLane="0" toLane="0" via=":South_Split_0_0" dir="s" state="M"/>
    <connection from="South_Entrance_Far" to="South_Entrance" fromLane="0" toLane="1" via=":South_Split_0_1" dir="s" state="M"/>
    <connection from="South_Entrance" to="East_Exit" fromLane="0" toLane="0" via=":Center_6_0" tl="Center" linkIndex="6" dir="r" state="o"/>
    <connection from="South_Entrance" to="North_Exit" fromLane="0" toLane="0" via=":Center_7_0" tl="Center" linkIndex="7" dir="s" state="o"/>
    <connection from="South_Entrance" to="West_Exit" fromLane="1" toLane="0" via=":Center_8_0" tl="Center" linkIndex="8" dir="l" state="o"/>
    <connection from="West_Exit" to="West_Exit_Far" fromLane="0" toLane="0" via=":West_Exit_Split_0_0" dir="s" state="M"/>
    <connection from="West_Exit" to="West_Exit_Far" fromLane="0" toLane="1" via=":West_Exit_Split_0_1" dir="s" state="M"/>
    <connection from="West_Exit_Far" to="West_Entrance_Far" fromLane="1" toLane="0" via=":West_End_0_0" dir="t" state="M"/>
    <connection from="South_Exit" to="South_Exit_Far" fromLane="0" toLane="0" via=":South_Exit_Split_0_0" dir="s" state="M"/>
    <connection from="South_Exit" to="South_Exit_Far" fromLane="0" toLane="1" via=":South_Exit_Split_0_1" dir="s" state="M"/>
    <connection from="South_Exit_Far" to="South_Entrance_Far" fromLane="1" toLane="0" via=":South_End_0_0" dir="t" state="M"/>
    <connection from="North_Exit" to="North_Exit_Far" fromLane="0" toLane="0" via=":North_Exit_Split_0_0" dir="s" state="M"/>
    <connection from="North_Exit" to="North_Exit_Far" fromLane="0" toLane="1" via=":North_Exit_Split_0_1" dir="s" state="M"/>
    <connection from="North_Exit_Far" to="North_Entrance_Far" fromLane="1" toLane="0" via=":North_End_0_0" dir="t" state="M"/>
    <connection from="East_Exit" to="East_Exit_Far" fromLane="0" toLane="0" via=":East_Exit_Split_0_0" dir="s" state="M"/>
    <connection from="East_Exit" to="East_Exit_Far" fromLane="0" toLane="1" via=":East_Exit_Split_0_1" dir="s" state="M"/>
    <connection from="East_Exit_Far" to="East_Entrance_Far" fromLane="1" toLane="0" via=":East_End_0_0" dir="t" state="M"/>
    <connection from="North_Entrance_Far" to="North_Entrance" fromLane="0" toLane="0" via=":North_Split_0_0" dir="s" state="M"/>
    <connection from="North_Entrance_Far" to="North_Entrance" fromLane="0" toLane="1" via=":North_Split_0_1" dir="s" state="M"/>
    <connection from="North_Entrance" to="West_Exit" fromLane="0" toLane="0" via=":Center_0_0" tl="Center" linkIndex="0" dir="r" state="o"/>
    <connection from="North_Entrance" to="South_Exit" fromLane="0" toLane="0" via=":Center_1_0" tl="Center" linkIndex="1" dir="s" state="o"/>
    <connection from="North_Entrance" to="East_Exit" fromLane="1" toLane="0" via=":Center_2_0" tl="Center" linkIndex="2" dir="l" state="o"/>
    <connection from="East_Entrance_Far" to="East_Entrance" fromLane="0" toLane="0" via=":East_Split_0_0" dir="s" state="M"/>
    <connection from="East_Entrance_Far" to="East_Entrance" fromLane="0" toLane="1" via=":East_Split_0_1" dir="s" state="M"/>
    <connection from="East_Entrance" to="North_Exit" fromLane="0" toLane="0" via=":Center_3_0" tl="Center" linkIndex="3" dir="r" state="o"/>
    <connection from="East_Entrance" to="West_Exit" fromLane="0" toLane="0" via=":Center_4_0" tl="Center" linkIndex="4" dir="s" state="o"/>
    <connection from="East_Entrance" to="South_Exit" fromLane="1" toLane="0" via=":Center_5_0" tl="Center" linkIndex="5" dir="l" state="o"/>

    <connection from=":West_End_0" to="West_Entrance_Far" fromLane="0" toLane="0" dir="s" state="M"/>
    <connection from=":West_Split_0" to="West_Entrance" fromLane="0" toLane="0" dir="s" state="M"/>
    <connection from=":West_Split_0" to="West_Entrance" fromLane="1" toLane="1" dir="s" state="M"/>
    <connection from=":South_End_0" to="South_Entrance_Far" fromLane="0" toLane="0" dir="s" state="M"/>
    <connection from=":South_Split_0" to="South_Entrance" fromLane="0" toLane="0" dir="s" state="M"/>
    <connection from=":South_Split_0" to="South_Entrance" fromLane="1" toLane="1" dir="s" state="M"/>
    <connection from=":Center_0" to="West_Exit" fromLane="0" toLane="0" dir="s" state="M"/>
    <connection from=":Center_1" to="South_Exit" fromLane="0" toLane="0" dir="s" state="M"/>
    <connection from=":Center_2" to="East_Exit" fromLane="0" toLane="0" via=":Center_12_0" dir="s" state="m"/>
    <connection from=":Center_12" to="East_Exit" fromLane="0" toLane="0" dir="s" state="M"/>
    <connection from=":Center_3" to="North_Exit" fromLane="0" toLane="0" dir="s" state="M"/>
    <connection from=":Center_4" to="West_Exit" fromLane="0" toLane="0" dir="s" state="M"/>
    <connection from=":Center_5" to="South_Exit" fromLane="0" toLane="0" via=":Center_13_0" dir="s" state="m"/>
    <connection from=":Center_13" to="South_Exit" fromLane="0" toLane="0" dir="s" state="M"/>
    <connection from=":Center_6" to="East_Exit" fromLane="0" toLane="0" dir="s" state="M"/>
    <connection from=":Center_7" to="North_Exit" fromLane="0" toLane="0" dir="s" state="M"/>
    <connection from=":Center_8" to="West_Exit" fromLane="0" toLane="0" via=":Center_14_0" dir="s" state="m"/>
    <connection from=":Center_14" to="West_Exit" fromLane="0" toLane="0" dir="s" state="M"/>
    <connection from=":Center_9" to="South_Exit" fromLane="0" toLane="0" dir="s" state="M"/>
    <connection from=":Center_10" to="East_Exit" fromLane="0" toLane="0" dir="s" state="M"/>
    <connection from=":Center_11" to="North_Exit" fromLane="0" toLane="0" via=":Center_15_0" dir="s" state="m"/>
    <connection from=":Center_15" to="North_Exit" fromLane="0" toLane="0" dir="s" state="M"/>
    <connection from=":West_Exit_Split_0" to="West_Exit_Far" fromLane="0" toLane="0" dir="s" state="M"/>
    <connection from=":West_Exit_Split_0" to="West_Exit_Far" fromLane="1" toLane="1" dir="s" state="M"/>
    <connection from=":South_Exit_Split_0" to="South_Exit_Far" fromLane="0" toLane="0" dir="s" state="M"/>
    <connection from=":South_Exit_Split_0" to="South_Exit_Far" fromLane="1" toLane="1" dir="s" state="M"/>
    <connection from=":North_Exit_Split_0" to="North_Exit_Far" fromLane="0" toLane="0" dir="s" state="M"/>
    <connection from=":North_Exit_Split_0" to="North_Exit_Far" fromLane="1" toLane="1" dir="s" state="M"/>
    <connection from=":East_Exit_Split_0" to="East_Exit_Far" fromLane="0" toLane="0" dir="s" state="M"/>
    <connection from=":East_Exit_Split_0" to="East_Exit_Far" fromLane="1" toLane="1" dir="s" state="M"/>
    <connection from=":North_End_0" to="North_Entrance_Far" fromLane="0" toLane="0" dir="s" state="M"/>
    <connection from=":North_Split_0" to="North_Entrance" fromLane="0" toLane="0" dir="s" state="M"/>
    <connection from=":North_Split_0" to="North_Entrance" fromLane="1" toLane="1" dir="s" state="M"/>
    <connection from=":East_End_0" to="East_Entrance_Far" fromLane="0" toLane="0" dir="s" state="M"/>
    <connection from=":East_Split_0" to="East_Entrance" fromLane="0" toLane="0" dir="s" state="M"/>
    <connection from=":East_Split_0" to="East_Entrance" fromLane="1" toLane="1" dir="s" state="M"/>

</net>
